** CalculiX Input File
** Generated by FEA Platform
** Analysis type: Linear Static

*NODE, NSET=ALL_NODES
1, -50.000000, -25.000000, -12.500000
2, -50.000000, -25.000000, 12.500000
3, -50.000000, 25.000000, -12.500000
4, -50.000000, 25.000000, 12.500000
5, 50.000000, -25.000000, -12.500000
6, 50.000000, -25.000000, 12.500000
7, 50.000000, 25.000000, -12.500000
8, 50.000000, 25.000000, 12.500000
9, -50.000000, -25.000000, -7.500000
10, -50.000000, -25.000000, -2.500000
11, -50.000000, -25.000000, 2.500000
12, -50.000000, -25.000000, 7.500000
13, -50.000000, -25.000000, -10.000000
14, -50.000000, -25.000000, -5.000000
15, -50.000000, -25.000000, 0.000000
16, -50.000000, -25.000000, 5.000000
17, -50.000000, -25.000000, 10.000000
18, -50.000000, -20.000000, -12.500000
19, -50.000000, -15.000000, -12.500000
20, -50.000000, -10.000000, -12.500000
** ... 8503 like lines cut

*ELEMENT, TYPE=C3D10, ELSET=ALL_ELEMENTS
1, 2644, 3497, 3462, 3553, 3832, 3833, 3834, 3835, 3836, 3837
2, 3416, 3600, 3539, 3618, 3838, 3839, 3840, 3841, 3842, 3843
3, 1707, 3519, 3440, 3540, 3844, 3845, 3846, 3847, 3848, 3849
4, 787, 3479, 2703, 3516, 3850, 3851, 3852, 3853, 3854, 3855
5, 1231, 3469, 2520, 3577, 3856, 3857, 3858, 3859, 3860, 3861
6, 1681, 3658, 3546, 3728, 3862, 3863, 3864, 3865, 3866, 3867
7, 1662, 3458, 3498, 3724, 3868, 3869, 3870, 3871, 3872, 3873
8, 1715, 3523, 3495, 3653, 3874, 3875, 3876, 3877, 3878, 3879
9, 3417, 3516, 3635, 3638, 3880, 3881, 3882, 3883, 3884, 3885
10, 3438, 3414, 3503, 3634, 3886, 3887, 3888, 3889, 3890, 3891
11, 3416, 3538, 3600, 3618, 3892, 3893, 3838, 3841, 3843, 3894
12, 748, 3512, 2652, 3575, 3895, 3896, 3897, 3898, 3899, 3900
13, 3407, 3498, 3458, 3724, 3901, 3869, 3902, 3903, 3873, 3872
14, 2644, 3553, 3462, 3627, 3835, 3836, 3834, 3904, 3905, 3906
15, 3429, 3420, 3490, 3551, 3907, 3908, 3909, 3910, 3911, 3912
16, 3414, 3574, 3503, 3649, 3913, 3914, 3887, 3915, 3916, 3917
17, 3414, 3523, 3495, 3634, 3918, 3875, 3919, 3891, 3920, 3921
18, 3420, 3429, 3490, 3794, 3907, 3909, 3908, 3922, 3923, 3924
19, 1231, 2520, 2711, 3577, 3858, 2844, 3925, 3859, 3926, 3860
20, 2549, 3786, 3543, 3796, 3927, 3928, 3929, 3930, 3931, 3932
** ... 5092 like lines cut

*NSET, NSET=FIXED_NODES
1, 3, 5, 7, 18, 19, 20, 21, 22, 23
24, 25, 26, 27, 28, 29, 30, 31, 32, 33
34, 35, 36, 74, 75, 76, 77, 78, 79, 80
81, 82, 83, 84, 85, 86, 87, 88, 89, 90
91, 92, 121, 122, 123, 124, 125, 126, 127, 128
129, 130, 131, 132, 133, 134, 135, 136, 137, 138
139, 140, 141, 142, 143, 144, 145, 146, 147, 148
149, 150, 151, 152, 153, 154, 155, 156, 157, 158
159, 199, 200, 201, 202, 203, 204, 205, 206, 207
208, 209, 210, 211, 212, 213, 214, 215, 216, 217
218, 219, 220, 221, 222, 223, 224, 225, 226, 227
228, 229, 230, 231, 232, 233, 234, 235, 236, 237
1617, 1618, 1619, 1620, 1621, 1622, 1623, 1624, 1625, 1626
1627, 1628, 1629, 1630, 1631, 1632, 1633, 1634, 1635, 1636
1637, 1638, 1639, 1640, 1641, 1642, 1643, 1644, 1645, 1646
1647, 1648, 1649, 1650, 1651, 1652, 1653, 1654, 1655, 1656
1657, 1658, 1659, 1660, 1661, 1662, 1663, 1664, 1665, 1666
1667, 1668, 1669, 1670, 1671, 1672, 1673, 1674, 1675, 1676
1677, 1678, 1679, 1680, 1681, 1682, 1683, 1684, 1685, 1686
1687, 1688, 1689, 1690, 1691, 1692, 1693, 1694, 1695, 1696
** ... 82 like lines cut

*NSET, NSET=LOAD_NODES
2, 4, 6, 8, 46, 47, 48, 49, 50, 51
52, 53, 54, 55, 56, 57, 58, 59, 60, 61
62, 63, 64, 102, 103, 104, 105, 106, 107, 108
109, 110, 111, 112, 113, 114, 115, 116, 117, 118
119, 120, 160, 161, 162, 163, 164, 165, 166, 167
168, 169, 170, 171, 172, 173, 174, 175, 176, 177
178, 179, 180, 181, 182, 183, 184, 185, 186, 187
188, 189, 190, 191, 192, 193, 194, 195, 196, 197
198, 238, 239, 240, 241, 242, 243, 244, 245, 246
247, 248, 249, 250, 251, 252, 253, 254, 255, 256
257, 258, 259, 260, 261, 262, 263, 264, 265, 266
267, 268, 269, 270, 271, 272, 273, 274, 275, 276
2510, 2511, 2512, 2513, 2514, 2515, 2516, 2517, 2518, 2519
2520, 2521, 2522, 2523, 2524, 2525, 2526, 2527, 2528, 2529
2530, 2531, 2532, 2533, 2534, 2535, 2536, 2537, 2538, 2539
2540, 2541, 2542, 2543, 2544, 2545, 2546, 2547, 2548, 2549
2550, 2551, 2552, 2553, 2554, 2555, 2556, 2557, 2558, 2559
2560, 2561, 2562, 2563, 2564, 2565, 2566, 2567, 2568, 2569
2570, 2571, 2572, 2573, 2574, 2575, 2576, 2577, 2578, 2579
2580, 2581, 2582, 2583, 2584, 2585, 2586, 2587, 2588, 2589
** ... 82 like lines cut

*MATERIAL, NAME=STEEL
*ELASTIC
210000, 0.3
*DENSITY
7.85e-09

*SOLID SECTION, ELSET=ALL_ELEMENTS, MATERIAL=STEEL

*STEP
*STATIC

** Fixed support - bottom face cannot move
*BOUNDARY
FIXED_NODES, 1, 3, 0.0

** Applied force: -10000 N in Z direction
** Distributed across 1013 nodes
*CLOAD
2, 3, -9.871668
4, 3, -9.871668
6, 3, -9.871668
8, 3, -9.871668
46, 3, -9.871668
47, 3, -9.871668
48, 3, -9.871668
49, 3, -9.871668
50, 3, -9.871668
51, 3, -9.871668
52, 3, -9.871668
53, 3, -9.871668
54, 3, -9.871668
55, 3, -9.871668
56, 3, -9.871668
57, 3, -9.871668
58, 3, -9.871668
59, 3, -9.871668
60, 3, -9.871668
61, 3, -9.871668
** ... 993 like lines cut

** Output requests
*NODE FILE
U
*EL FILE
S
E

*END STEP
