** CalculiX Input File
** Element type: C3D4 (4-node tetrahedron, first order)

*NODE, NSET=ALL_NODES
1, -50.000000, -25.000000, -12.500000
2, -50.000000, -25.000000, 12.500000
3, -50.000000, 25.000000, -12.500000
4, -50.000000, 25.000000, 12.500000
5, 50.000000, -25.000000, -12.500000
6, 50.000000, -25.000000, 12.500000
7, 50.000000, 25.000000, -12.500000
8, 50.000000, 25.000000, 12.500000
9, -50.000000, -25.000000, -7.500000
10, -50.000000, -25.000000, -2.500000
11, -50.000000, -25.000000, 2.500000
12, -50.000000, -25.000000, 7.500000
13, -50.000000, -20.000000, -12.500000
14, -50.000000, -15.000000, -12.500000
15, -50.000000, -10.000000, -12.500000
16, -50.000000, -5.000000, -12.500000
17, -50.000000, 0.000000, -12.500000
18, -50.000000, 5.000000, -12.500000
19, -50.000000, 10.000000, -12.500000
20, -50.000000, 15.000000, -12.500000
** ... 1627 like lines cut

*ELEMENT, TYPE=C3D4, ELSET=ALL_ELEMENTS
1, 1067, 386, 1052, 1055
2, 940, 1409, 1414, 1415
3, 1286, 279, 1288, 854
4, 1450, 496, 484, 586
5, 877, 637, 21, 3
6, 1286, 1300, 1341, 1299
7, 1153, 1188, 1155, 1518
8, 312, 885, 880, 913
9, 1370, 914, 925, 1541
10, 397, 1599, 1099, 1094
11, 683, 686, 1231, 1188
12, 760, 1133, 842, 733
13, 757, 949, 1270, 1202
14, 719, 1154, 1208, 1242
15, 1133, 1282, 842, 1047
16, 542, 1312, 593, 873
17, 777, 920, 781, 790
18, 1470, 1459, 1002, 1467
19, 1294, 1344, 1297, 856
20, 1579, 843, 644, 1127
** ... 6990 like lines cut

*NSET, NSET=FIXED_NODES
1, 3, 5, 7, 13, 14, 15, 16, 17, 18
19, 20, 21, 39, 40, 41, 42, 43, 44, 45
46, 47, 61, 62, 63, 64, 65, 66, 67, 68
69, 70, 71, 72, 73, 74, 75, 76, 77, 78
79, 99, 100, 101, 102, 103, 104, 105, 106, 107
108, 109, 110, 111, 112, 113, 114, 115, 116, 117
435, 436, 437, 438, 439, 440, 441, 442, 443, 444
445, 446, 447, 448, 449, 450, 451, 452, 453, 454
455, 456, 457, 458, 459, 460, 461, 462, 463, 464
465, 466, 467, 468, 469, 470, 471, 472, 473, 474
475, 476, 477, 478, 479, 480, 481, 482, 483, 484
485, 486, 487, 488, 489, 490, 491, 492, 493, 494
495, 496, 497, 498, 499, 500, 501, 502, 503, 504
505, 506, 507, 508, 509, 510, 511, 512, 513, 514
515, 516, 517, 518, 519, 520, 521, 522, 523, 524
525, 526, 527, 528, 529, 530, 531, 532, 533, 534
535, 536, 537, 538, 539, 540, 541, 542, 543, 544
545, 546, 547, 548, 549, 550, 551, 552, 553, 554
555, 556, 557, 558, 559, 560, 561, 562, 563, 564
565, 566, 567, 568, 569, 570, 571, 572, 573, 574
** ... 7 like lines cut

*NSET, NSET=LOAD_NODES
2, 4, 6, 8, 26, 27, 28, 29, 30, 31
32, 33, 34, 52, 53, 54, 55, 56, 57, 58
59, 60, 80, 81, 82, 83, 84, 85, 86, 87
88, 89, 90, 91, 92, 93, 94, 95, 96, 97
98, 118, 119, 120, 121, 122, 123, 124, 125, 126
127, 128, 129, 130, 131, 132, 133, 134, 135, 136
644, 645, 646, 647, 648, 649, 650, 651, 652, 653
654, 655, 656, 657, 658, 659, 660, 661, 662, 663
664, 665, 666, 667, 668, 669, 670, 671, 672, 673
674, 675, 676, 677, 678, 679, 680, 681, 682, 683
684, 685, 686, 687, 688, 689, 690, 691, 692, 693
694, 695, 696, 697, 698, 699, 700, 701, 702, 703
704, 705, 706, 707, 708, 709, 710, 711, 712, 713
714, 715, 716, 717, 718, 719, 720, 721, 722, 723
724, 725, 726, 727, 728, 729, 730, 731, 732, 733
734, 735, 736, 737, 738, 739, 740, 741, 742, 743
744, 745, 746, 747, 748, 749, 750, 751, 752, 753
754, 755, 756, 757, 758, 759, 760, 761, 762, 763
764, 765, 766, 767, 768, 769, 770, 771, 772, 773
774, 775, 776, 777, 778, 779, 780, 781, 782, 783
** ... 7 like lines cut

*MATERIAL, NAME=STEEL
*ELASTIC
210000, 0.3
*DENSITY
7.85e-09

*SOLID SECTION, ELSET=ALL_ELEMENTS, MATERIAL=STEEL

*STEP
*STATIC

*BOUNDARY
FIXED_NODES, 1, 3, 0.0

** Total force: -10000 N across 269 nodes
*CLOAD
2, 3, -37.174721
4, 3, -37.174721
6, 3, -37.174721
8, 3, -37.174721
26, 3, -37.174721
27, 3, -37.174721
28, 3, -37.174721
29, 3, -37.174721
30, 3, -37.174721
31, 3, -37.174721
32, 3, -37.174721
33, 3, -37.174721
34, 3, -37.174721
52, 3, -37.174721
53, 3, -37.174721
54, 3, -37.174721
55, 3, -37.174721
56, 3, -37.174721
57, 3, -37.174721
58, 3, -37.174721
** ... 249 like lines cut

*NODE FILE
U
*EL FILE
S
E

*END STEP
